New polyhedral discretisation methods applied to the Richards equation: CDO schemes in Code_Saturne
             